<?xml version="1.0" encoding="utf-8"?>
<!DOCTYPE population SYSTEM "http://www.matsim.org/files/dtd/population_v6.dtd">

<population desc="population written from streaming">



<!-- ====================================================================== -->

	<person id="10047">
		<attributes>
			<attribute name="MiD:hheink_gr2" class="java.lang.String">5</attribute>
			<attribute name="MiD:hhgr_gr" class="java.lang.String">2</attribute>
			<attribute name="microm:modeled:age" class="java.lang.Integer">75</attribute>
			<attribute name="microm:modeled:sex" class="java.lang.String">m</attribute>
			<attribute name="sim_carAvailability" class="java.lang.String">always</attribute>
			<attribute name="sim_ptAbo" class="java.lang.String">none</attribute>
			<attribute name="subpopulation" class="java.lang.String">person</attribute>
		</attributes>
		<plan score="0.0" selected="yes">
			<activity type="home_28800.0" x="363321.9623761249" y="5690460.5125673" end_time="07:00:00" >
			</activity>
			<leg mode="car" trav_time="00:13:00">
				<attributes>
					<attribute name="routingMode" class="java.lang.String">car</attribute>
				</attributes>
			</leg>
			<activity type="errands_4200.0" x="360554.61493460677" y="5693064.430011208" start_time="07:13:00" end_time="08:18:00" >
			</activity>
			<leg mode="pt" trav_time="00:10:00">
				<attributes>
					<attribute name="routingMode" class="java.lang.String">pt</attribute>
				</attributes>
			</leg>
			<activity type="home_3000.0" x="363321.9623761249" y="5690460.5125673" start_time="08:28:00" end_time="09:20:00" >
			</activity>
			<leg mode="car" trav_time="00:16:00">
				<attributes>
					<attribute name="routingMode" class="java.lang.String">car</attribute>
				</attributes>
			</leg>
			<activity type="leisure_8400.0" x="367259.373685885" y="5684660.855361369" start_time="09:36:00" end_time="11:55:00" >
			</activity>
			<leg mode="car" trav_time="00:11:00">
				<attributes>
					<attribute name="routingMode" class="java.lang.String">car</attribute>
				</attributes>
			</leg>
			<activity type="errands_5400.0" x="362060.47642219265" y="5688678.299819756" start_time="12:06:00" end_time="13:38:00" >
			</activity>
			<leg mode="pt" trav_time="00:10:00">
				<attributes>
					<attribute name="routingMode" class="java.lang.String">pt</attribute>
				</attributes>
			</leg>
			<activity type="home_28800.0" x="363321.9623761249" y="5690460.5125673" start_time="13:48:00" >
			</activity>
		</plan>

	</person>

<!-- ====================================================================== -->

	<person id="10057">
		<attributes>
			<attribute name="MiD:hheink_gr2" class="java.lang.String">8</attribute>
			<attribute name="MiD:hhgr_gr" class="java.lang.String">5</attribute>
			<attribute name="microm:modeled:age" class="java.lang.Integer">23</attribute>
			<attribute name="microm:modeled:sex" class="java.lang.String">f</attribute>
			<attribute name="sim_carAvailability" class="java.lang.String">never</attribute>
			<attribute name="sim_ptAbo" class="java.lang.String">none</attribute>
			<attribute name="subpopulation" class="java.lang.String">person</attribute>
		</attributes>
		<plan score="0.0" selected="yes">
			<activity type="home_14400.0" x="370516.07032288157" y="5692682.881211571" >
			</activity>
		</plan>

	</person>

<!-- ====================================================================== -->

	<person id="10058">
		<attributes>
			<attribute name="MiD:hheink_gr2" class="java.lang.String">8</attribute>
			<attribute name="MiD:hhgr_gr" class="java.lang.String">5</attribute>
			<attribute name="microm:modeled:age" class="java.lang.Integer">24</attribute>
			<attribute name="microm:modeled:sex" class="java.lang.String">f</attribute>
			<attribute name="sim_carAvailability" class="java.lang.String">never</attribute>
			<attribute name="sim_ptAbo" class="java.lang.String">none</attribute>
			<attribute name="subpopulation" class="java.lang.String">person</attribute>
		</attributes>
		<plan score="0.0" selected="yes">
			<activity type="home_14400.0" x="370126.65210196294" y="5692736.756336109" end_time="12:58:00" >
			</activity>
			<leg mode="ride" trav_time="00:13:00">
				<attributes>
					<attribute name="routingMode" class="java.lang.String">ride</attribute>
				</attributes>
			</leg>
			<activity type="errands_2400.0" x="368962.9446936715" y="5690621.891666275" start_time="13:11:00" end_time="13:49:00" >
			</activity>
			<leg mode="ride" trav_time="00:13:00">
				<attributes>
					<attribute name="routingMode" class="java.lang.String">ride</attribute>
				</attributes>
			</leg>
			<activity type="home_14400.0" x="370126.65210196294" y="5692736.756336109" start_time="14:02:00" end_time="20:41:00" >
			</activity>
			<leg mode="pt" trav_time="00:35:00">
				<attributes>
					<attribute name="routingMode" class="java.lang.String">pt</attribute>
				</attributes>
			</leg>
			<activity type="errands_6000.0" x="367743.74389624" y="5701523.6843221625" start_time="21:16:00" end_time="22:55:00" >
			</activity>
			<leg mode="ride" trav_time="00:21:00">
				<attributes>
					<attribute name="routingMode" class="java.lang.String">ride</attribute>
				</attributes>
			</leg>
			<activity type="errands_2400.0" x="359934.21482997935" y="5700997.766079856" start_time="23:16:00" >
			</activity>
		</plan>

	</person>

<!-- ====================================================================== -->

	<person id="10059">
		<attributes>
			<attribute name="MiD:hheink_gr2" class="java.lang.String">8</attribute>
			<attribute name="MiD:hhgr_gr" class="java.lang.String">5</attribute>
			<attribute name="microm:modeled:age" class="java.lang.Integer">20</attribute>
			<attribute name="microm:modeled:sex" class="java.lang.String">f</attribute>
			<attribute name="sim_carAvailability" class="java.lang.String">never</attribute>
			<attribute name="sim_ptAbo" class="java.lang.String">none</attribute>
			<attribute name="subpopulation" class="java.lang.String">person</attribute>
		</attributes>
		<plan score="0.0" selected="yes">
			<activity type="home_14400.0" x="370273.6384648939" y="5692906.109092419" end_time="05:43:00" >
			</activity>
			<leg mode="pt" trav_time="00:10:00">
				<attributes>
					<attribute name="routingMode" class="java.lang.String">pt</attribute>
				</attributes>
			</leg>
			<activity type="work_8400.0" x="367262.9008626995" y="5691244.5062739365" start_time="05:53:00" end_time="08:13:00" >
			</activity>
			<leg mode="ride" trav_time="00:23:00">
				<attributes>
					<attribute name="routingMode" class="java.lang.String">ride</attribute>
				</attributes>
			</leg>
			<activity type="business_14400.0" x="368964.2465103732" y="5694319.215767034" start_time="08:36:00" end_time="12:31:00" >
			</activity>
			<leg mode="ride" trav_time="00:13:00">
				<attributes>
					<attribute name="routingMode" class="java.lang.String">ride</attribute>
				</attributes>
			</leg>
			<activity type="business_3600.0" x="369208.26587397925" y="5697221.19355779" start_time="12:44:00" end_time="13:45:00" >
			</activity>
			<leg mode="ride" trav_time="00:06:00">
				<attributes>
					<attribute name="routingMode" class="java.lang.String">ride</attribute>
				</attributes>
			</leg>
			<activity type="errands_3000.0" x="369390.8533124288" y="5695898.765314359" start_time="13:51:00" end_time="14:43:00" >
			</activity>
			<leg mode="walk" trav_time="00:16:00">
				<attributes>
					<attribute name="routingMode" class="java.lang.String">walk</attribute>
				</attributes>
			</leg>
			<activity type="work_4200.0" x="368604.555414209" y="5691907.611335511" start_time="14:59:00" end_time="16:11:00" >
			</activity>
			<leg mode="walk" trav_time="00:16:00">
				<attributes>
					<attribute name="routingMode" class="java.lang.String">walk</attribute>
				</attributes>
			</leg>
			<activity type="home_7800.0" x="370273.6384648939" y="5692906.109092419" start_time="16:27:00" end_time="18:34:00" >
			</activity>
			<leg mode="ride" trav_time="00:23:00">
				<attributes>
					<attribute name="routingMode" class="java.lang.String">ride</attribute>
				</attributes>
			</leg>
			<activity type="leisure_14400.0" x="362331.5233879127" y="5689040.537661519" start_time="18:57:00" >
			</activity>
		</plan>

	</person>

<!-- ====================================================================== -->

	<person id="10066">
		<attributes>
			<attribute name="MiD:hheink_gr2" class="java.lang.String">6</attribute>
			<attribute name="MiD:hhgr_gr" class="java.lang.String">2</attribute>
			<attribute name="microm:modeled:age" class="java.lang.Integer">62</attribute>
			<attribute name="microm:modeled:sex" class="java.lang.String">m</attribute>
			<attribute name="sim_carAvailability" class="java.lang.String">never</attribute>
			<attribute name="sim_ptAbo" class="java.lang.String">none</attribute>
			<attribute name="subpopulation" class="java.lang.String">person</attribute>
		</attributes>
		<plan score="0.0" selected="yes">
			<activity type="home_14400.0" x="370019.95764839195" y="5693273.070494277" end_time="16:59:00" >
			</activity>
			<leg mode="pt" trav_time="00:11:00">
				<attributes>
					<attribute name="routingMode" class="java.lang.String">pt</attribute>
				</attributes>
			</leg>
			<activity type="leisure_14400.0" x="369166.27413273405" y="5690712.333781523" start_time="17:10:00" >
			</activity>
		</plan>

	</person>

<!-- ====================================================================== -->

	<person id="10072">
		<attributes>
			<attribute name="MiD:hheink_gr2" class="java.lang.String">7</attribute>
			<attribute name="MiD:hhgr_gr" class="java.lang.String">2</attribute>
			<attribute name="microm:modeled:age" class="java.lang.Integer">60</attribute>
			<attribute name="microm:modeled:sex" class="java.lang.String">m</attribute>
			<attribute name="sim_carAvailability" class="java.lang.String">always</attribute>
			<attribute name="sim_ptAbo" class="java.lang.String">none</attribute>
			<attribute name="subpopulation" class="java.lang.String">person</attribute>
		</attributes>
		<plan score="0.0" selected="yes">
			<activity type="home_14400.0" x="370195.41535543837" y="5693155.710142161" end_time="14:34:00" >
			</activity>
			<leg mode="car" trav_time="00:14:00">
				<attributes>
					<attribute name="routingMode" class="java.lang.String">car</attribute>
				</attributes>
			</leg>
			<activity type="leisure_14400.0" x="368967.8185282212" y="5690641.524939584" start_time="14:48:00" >
			</activity>
		</plan>

	</person>

<!-- ====================================================================== -->

	<person id="10094">
		<attributes>
			<attribute name="MiD:hheink_gr2" class="java.lang.String">8</attribute>
			<attribute name="MiD:hhgr_gr" class="java.lang.String">4</attribute>
			<attribute name="microm:modeled:age" class="java.lang.Integer">49</attribute>
			<attribute name="microm:modeled:sex" class="java.lang.String">m</attribute>
			<attribute name="sim_carAvailability" class="java.lang.String">never</attribute>
			<attribute name="sim_ptAbo" class="java.lang.String">none</attribute>
			<attribute name="subpopulation" class="java.lang.String">person</attribute>
		</attributes>
		<plan score="0.0" selected="yes">
			<activity type="work_28800.0" x="369058.9695020311" y="5694653.872026131" end_time="06:32:00" >
			</activity>
			<leg mode="ride" trav_time="00:13:00">
				<attributes>
					<attribute name="routingMode" class="java.lang.String">ride</attribute>
				</attributes>
			</leg>
			<activity type="home_14400.0" x="370581.0486483487" y="5692802.599401671" start_time="06:45:00" end_time="14:14:00" >
			</activity>
			<leg mode="ride" trav_time="00:13:00">
				<attributes>
					<attribute name="routingMode" class="java.lang.String">ride</attribute>
				</attributes>
			</leg>
			<activity type="leisure_1800.0" x="370418.3104471652" y="5693041.779447964" start_time="14:27:00" end_time="15:00:00" >
			</activity>
			<leg mode="ride" trav_time="00:18:00">
				<attributes>
					<attribute name="routingMode" class="java.lang.String">ride</attribute>
				</attributes>
			</leg>
			<activity type="work_28800.0" x="373582.56177017814" y="5695175.659937725" start_time="15:18:00" >
			</activity>
		</plan>

	</person>

<!-- ====================================================================== -->

	<person id="10128">
		<attributes>
			<attribute name="MiD:hheink_gr2" class="java.lang.String">6</attribute>
			<attribute name="MiD:hhgr_gr" class="java.lang.String">1</attribute>
			<attribute name="microm:modeled:age" class="java.lang.Integer">55</attribute>
			<attribute name="microm:modeled:sex" class="java.lang.String">m</attribute>
			<attribute name="sim_carAvailability" class="java.lang.String">always</attribute>
			<attribute name="sim_ptAbo" class="java.lang.String">none</attribute>
			<attribute name="subpopulation" class="java.lang.String">person</attribute>
		</attributes>
		<plan score="0.0" selected="yes">
			<activity type="home_28800.0" x="369949.7881194491" y="5692395.140666636" end_time="11:13:00" >
			</activity>
			<leg mode="car" trav_time="00:20:00">
				<attributes>
					<attribute name="routingMode" class="java.lang.String">car</attribute>
				</attributes>
			</leg>
			<activity type="leisure_5400.0" x="369378.44594281545" y="5691812.020434887" start_time="11:33:00" end_time="12:59:00" >
			</activity>
			<leg mode="car" trav_time="00:35:00">
				<attributes>
					<attribute name="routingMode" class="java.lang.String">car</attribute>
				</attributes>
			</leg>
			<activity type="leisure_3600.0" x="364430.7269677237" y="5703830.685693926" start_time="13:34:00" end_time="14:33:00" >
			</activity>
			<leg mode="pt" trav_time="00:33:00">
				<attributes>
					<attribute name="routingMode" class="java.lang.String">pt</attribute>
				</attributes>
			</leg>
			<activity type="leisure_2400.0" x="369239.82933449274" y="5691070.331306063" start_time="15:06:00" end_time="15:46:00" >
			</activity>
			<leg mode="pt" trav_time="00:13:00">
				<attributes>
					<attribute name="routingMode" class="java.lang.String">pt</attribute>
				</attributes>
			</leg>
			<activity type="home_28800.0" x="369949.7881194491" y="5692395.140666636" start_time="15:59:00" >
			</activity>
		</plan>

	</person>

<!-- ====================================================================== -->

	<person id="10167">
		<attributes>
			<attribute name="MiD:hheink_gr2" class="java.lang.String">5</attribute>
			<attribute name="MiD:hhgr_gr" class="java.lang.String">1</attribute>
			<attribute name="microm:modeled:age" class="java.lang.Integer">73</attribute>
			<attribute name="microm:modeled:sex" class="java.lang.String">f</attribute>
			<attribute name="sim_carAvailability" class="java.lang.String">always</attribute>
			<attribute name="sim_ptAbo" class="java.lang.String">none</attribute>
			<attribute name="subpopulation" class="java.lang.String">person</attribute>
		</attributes>
		<plan score="0.0" selected="yes">
			<activity type="home_19200.0" x="370431.1623869657" y="5692880.179891944" end_time="06:39:00" >
			</activity>
			<leg mode="car" trav_time="00:08:00">
				<attributes>
					<attribute name="routingMode" class="java.lang.String">car</attribute>
				</attributes>
			</leg>
			<activity type="leisure_14400.0" x="369092.72747652215" y="5690590.785864353" start_time="06:47:00" end_time="11:27:00" >
			</activity>
			<leg mode="pt" trav_time="00:07:00">
				<attributes>
					<attribute name="routingMode" class="java.lang.String">pt</attribute>
				</attributes>
			</leg>
			<activity type="errands_14400.0" x="368935.7024592756" y="5690000.489289242" start_time="11:34:00" end_time="18:49:00" >
			</activity>
			<leg mode="walk" trav_time="00:05:00">
				<attributes>
					<attribute name="routingMode" class="java.lang.String">walk</attribute>
				</attributes>
			</leg>
			<activity type="leisure_12600.0" x="368696.81692228775" y="5690730.376791211" start_time="18:54:00" end_time="22:27:00" >
			</activity>
			<leg mode="pt" trav_time="00:10:00">
				<attributes>
					<attribute name="routingMode" class="java.lang.String">pt</attribute>
				</attributes>
			</leg>
			<activity type="home_19200.0" x="370431.1623869657" y="5692880.179891944" start_time="22:37:00" >
			</activity>
		</plan>

	</person>

<!-- ====================================================================== -->

	<person id="10194">
		<attributes>
			<attribute name="MiD:hheink_gr2" class="java.lang.String">8</attribute>
			<attribute name="MiD:hhgr_gr" class="java.lang.String">5</attribute>
			<attribute name="microm:modeled:age" class="java.lang.Integer">3</attribute>
			<attribute name="microm:modeled:sex" class="java.lang.String">m</attribute>
			<attribute name="sim_carAvailability" class="java.lang.String">never</attribute>
			<attribute name="sim_ptAbo" class="java.lang.String">none</attribute>
			<attribute name="subpopulation" class="java.lang.String">person</attribute>
		</attributes>
		<plan score="0.0" selected="yes">
			<activity type="home_14400.0" x="369917.2313332934" y="5692467.878956598" >
			</activity>
		</plan>

	</person>

<!-- ====================================================================== -->

	<person id="10256">
		<attributes>
			<attribute name="MiD:hheink_gr2" class="java.lang.String">3</attribute>
			<attribute name="MiD:hhgr_gr" class="java.lang.String">1</attribute>
			<attribute name="microm:modeled:age" class="java.lang.Integer">94</attribute>
			<attribute name="microm:modeled:sex" class="java.lang.String">f</attribute>
			<attribute name="sim_carAvailability" class="java.lang.String">always</attribute>
			<attribute name="sim_ptAbo" class="java.lang.String">none</attribute>
			<attribute name="subpopulation" class="java.lang.String">person</attribute>
		</attributes>
		<plan score="0.0" selected="yes">
			<activity type="home_14400.0" x="370389.38471886615" y="5693085.249246679" end_time="10:18:00" >
			</activity>
			<leg mode="pt" trav_time="00:19:00">
				<attributes>
					<attribute name="routingMode" class="java.lang.String">pt</attribute>
				</attributes>
			</leg>
			<activity type="leisure_4200.0" x="361199.4282406584" y="5700445.035370806" start_time="10:37:00" end_time="11:42:00" >
			</activity>
			<leg mode="pt" trav_time="00:15:00">
				<attributes>
					<attribute name="routingMode" class="java.lang.String">pt</attribute>
				</attributes>
			</leg>
			<activity type="errands_3000.0" x="366238.4823753837" y="5699117.001705717" start_time="11:57:00" end_time="12:46:00" >
			</activity>
			<leg mode="pt" trav_time="00:16:00">
				<attributes>
					<attribute name="routingMode" class="java.lang.String">pt</attribute>
				</attributes>
			</leg>
			<activity type="home_6600.0" x="370389.38471886615" y="5693085.249246679" start_time="13:02:00" end_time="14:51:00" >
			</activity>
			<leg mode="car" trav_time="00:20:00">
				<attributes>
					<attribute name="routingMode" class="java.lang.String">car</attribute>
				</attributes>
			</leg>
			<activity type="leisure_14400.0" x="366688.4331181926" y="5694827.732349467" start_time="15:11:00" end_time="25:37:00" >
			</activity>
			<leg mode="pt" trav_time="00:17:00">
				<attributes>
					<attribute name="routingMode" class="java.lang.String">pt</attribute>
				</attributes>
			</leg>
			<activity type="leisure_600.0" x="366618.1934465627" y="5695227.833772485" start_time="25:54:00" >
			</activity>
		</plan>

	</person>

<!-- ====================================================================== -->

	<person id="10301">
		<attributes>
			<attribute name="MiD:hheink_gr2" class="java.lang.String">7</attribute>
			<attribute name="MiD:hhgr_gr" class="java.lang.String">2</attribute>
			<attribute name="microm:modeled:age" class="java.lang.Integer">52</attribute>
			<attribute name="microm:modeled:sex" class="java.lang.String">m</attribute>
			<attribute name="sim_carAvailability" class="java.lang.String">always</attribute>
			<attribute name="sim_ptAbo" class="java.lang.String">none</attribute>
			<attribute name="subpopulation" class="java.lang.String">person</attribute>
		</attributes>
		<plan score="0.0" selected="yes">
			<activity type="home_28800.0" x="363367.2505329656" y="5691669.759811518" end_time="08:22:00" >
			</activity>
			<leg mode="car" trav_time="00:26:00">
				<attributes>
					<attribute name="routingMode" class="java.lang.String">car</attribute>
				</attributes>
			</leg>
			<activity type="leisure_13200.0" x="366505.979052493" y="5693186.126494433" start_time="08:48:00" end_time="12:31:00" >
			</activity>
			<leg mode="car" trav_time="00:28:00">
				<attributes>
					<attribute name="routingMode" class="java.lang.String">car</attribute>
				</attributes>
			</leg>
			<activity type="home_11400.0" x="363367.2505329656" y="5691669.759811518" start_time="12:59:00" end_time="16:04:00" >
			</activity>
			<leg mode="car" trav_time="00:23:00">
				<attributes>
					<attribute name="routingMode" class="java.lang.String">car</attribute>
				</attributes>
			</leg>
			<activity type="errands_3000.0" x="362047.05948345416" y="5688844.628680065" start_time="16:27:00" end_time="17:15:00" >
			</activity>
			<leg mode="pt" trav_time="00:24:00">
				<attributes>
					<attribute name="routingMode" class="java.lang.String">pt</attribute>
				</attributes>
			</leg>
			<activity type="home_28800.0" x="363367.2505329656" y="5691669.759811518" start_time="17:39:00" >
			</activity>
		</plan>

	</person>

<!-- ====================================================================== -->

	<person id="10313">
		<attributes>
			<attribute name="MiD:hheink_gr2" class="java.lang.String">10</attribute>
			<attribute name="MiD:hhgr_gr" class="java.lang.String">4</attribute>
			<attribute name="microm:modeled:age" class="java.lang.Integer">48</attribute>
			<attribute name="microm:modeled:sex" class="java.lang.String">m</attribute>
			<attribute name="sim_carAvailability" class="java.lang.String">never</attribute>
			<attribute name="sim_ptAbo" class="java.lang.String">none</attribute>
			<attribute name="subpopulation" class="java.lang.String">person</attribute>
		</attributes>
		<plan score="0.0" selected="yes">
			<activity type="home_28800.0" x="363506.53863388405" y="5691715.46896471" end_time="14:17:00" >
			</activity>
			<leg mode="ride" trav_time="00:20:00">
				<attributes>
					<attribute name="routingMode" class="java.lang.String">ride</attribute>
				</attributes>
			</leg>
			<activity type="errands_2400.0" x="357985.67475060985" y="5688043.080312595" start_time="14:37:00" end_time="15:15:00" >
			</activity>
			<leg mode="ride" trav_time="00:18:00">
				<attributes>
					<attribute name="routingMode" class="java.lang.String">ride</attribute>
				</attributes>
			</leg>
			<activity type="home_28800.0" x="363506.53863388405" y="5691715.46896471" start_time="15:33:00" >
			</activity>
		</plan>

	</person>

<!-- ====================================================================== -->

	<person id="10335">
		<attributes>
			<attribute name="MiD:hheink_gr2" class="java.lang.String">7</attribute>
			<attribute name="MiD:hhgr_gr" class="java.lang.String">4</attribute>
			<attribute name="microm:modeled:age" class="java.lang.Integer">65</attribute>
			<attribute name="microm:modeled:sex" class="java.lang.String">m</attribute>
			<attribute name="sim_carAvailability" class="java.lang.String">never</attribute>
			<attribute name="sim_ptAbo" class="java.lang.String">none</attribute>
			<attribute name="subpopulation" class="java.lang.String">person</attribute>
		</attributes>
		<plan score="0.0" selected="yes">
			<activity type="home_14400.0" x="363085.76572663145" y="5691396.846243595" end_time="12:18:00" >
			</activity>
			<leg mode="ride" trav_time="00:07:00">
				<attributes>
					<attribute name="routingMode" class="java.lang.String">ride</attribute>
				</attributes>
			</leg>
			<activity type="shop_other_14400.0" x="362189.2882334194" y="5692732.424960341" start_time="12:25:00" end_time="20:18:00" >
			</activity>
			<leg mode="ride" trav_time="00:07:00">
				<attributes>
					<attribute name="routingMode" class="java.lang.String">ride</attribute>
				</attributes>
			</leg>
			<activity type="errands_13200.0" x="363761.465393576" y="5690203.833488107" start_time="20:25:00" >
			</activity>
		</plan>

	</person>

<!-- ====================================================================== -->

	<person id="10341">
		<attributes>
			<attribute name="MiD:hheink_gr2" class="java.lang.String">5</attribute>
			<attribute name="MiD:hhgr_gr" class="java.lang.String">2</attribute>
			<attribute name="microm:modeled:age" class="java.lang.Integer">73</attribute>
			<attribute name="microm:modeled:sex" class="java.lang.String">m</attribute>
			<attribute name="sim_carAvailability" class="java.lang.String">never</attribute>
			<attribute name="sim_ptAbo" class="java.lang.String">none</attribute>
			<attribute name="subpopulation" class="java.lang.String">person</attribute>
		</attributes>
		<plan score="0.0" selected="yes">
			<activity type="home_14400.0" x="363132.1275015079" y="5691619.592914283" >
			</activity>
		</plan>

	</person>

<!-- ====================================================================== -->

	<person id="10351">
		<attributes>
			<attribute name="MiD:hheink_gr2" class="java.lang.String">6</attribute>
			<attribute name="MiD:hhgr_gr" class="java.lang.String">3</attribute>
			<attribute name="microm:modeled:age" class="java.lang.Integer">55</attribute>
			<attribute name="microm:modeled:sex" class="java.lang.String">m</attribute>
			<attribute name="sim_carAvailability" class="java.lang.String">always</attribute>
			<attribute name="sim_ptAbo" class="java.lang.String">none</attribute>
			<attribute name="subpopulation" class="java.lang.String">person</attribute>
		</attributes>
		<plan score="0.0" selected="yes">
			<activity type="home_28800.0" x="363468.0185022243" y="5691506.323471231" end_time="05:52:00" >
			</activity>
			<leg mode="car" trav_time="00:09:00">
				<attributes>
					<attribute name="routingMode" class="java.lang.String">car</attribute>
				</attributes>
			</leg>
			<activity type="work_14400.0" x="363897.3080760819" y="5687832.667120151" start_time="06:01:00" end_time="14:33:00" >
			</activity>
			<leg mode="pt" trav_time="00:08:00">
				<attributes>
					<attribute name="routingMode" class="java.lang.String">pt</attribute>
				</attributes>
			</leg>
			<activity type="home_4200.0" x="363468.0185022243" y="5691506.323471231" start_time="14:41:00" end_time="15:47:00" >
			</activity>
			<leg mode="car" trav_time="00:44:00">
				<attributes>
					<attribute name="routingMode" class="java.lang.String">car</attribute>
				</attributes>
			</leg>
			<activity type="leisure_6000.0" x="344647.5336212713" y="5678732.243802283" start_time="16:31:00" end_time="18:13:00" >
			</activity>
			<leg mode="car" trav_time="00:27:00">
				<attributes>
					<attribute name="routingMode" class="java.lang.String">car</attribute>
				</attributes>
			</leg>
			<activity type="shop_daily_3600.0" x="359523.08250365447" y="5683816.1342126485" start_time="18:40:00" end_time="19:37:00" >
			</activity>
			<leg mode="car" trav_time="00:24:00">
				<attributes>
					<attribute name="routingMode" class="java.lang.String">car</attribute>
				</attributes>
			</leg>
			<activity type="home_28800.0" x="363468.0185022243" y="5691506.323471231" start_time="20:01:00" >
			</activity>
		</plan>

	</person>

<!-- ====================================================================== -->

	<person id="10382">
		<attributes>
			<attribute name="MiD:hheink_gr2" class="java.lang.String">7</attribute>
			<attribute name="MiD:hhgr_gr" class="java.lang.String">3</attribute>
			<attribute name="microm:modeled:age" class="java.lang.Integer">64</attribute>
			<attribute name="microm:modeled:sex" class="java.lang.String">f</attribute>
			<attribute name="sim_carAvailability" class="java.lang.String">always</attribute>
			<attribute name="sim_ptAbo" class="java.lang.String">none</attribute>
			<attribute name="subpopulation" class="java.lang.String">person</attribute>
		</attributes>
		<plan score="0.0" selected="yes">
			<activity type="work_28800.0" x="364201.7463827236" y="5688861.163772123" end_time="07:28:00" >
			</activity>
			<leg mode="car" trav_time="00:15:00">
				<attributes>
					<attribute name="routingMode" class="java.lang.String">car</attribute>
				</attributes>
			</leg>
			<activity type="home_14400.0" x="363311.3271478017" y="5691587.622742636" start_time="07:43:00" end_time="12:57:00" >
			</activity>
			<leg mode="car" trav_time="00:22:00">
				<attributes>
					<attribute name="routingMode" class="java.lang.String">car</attribute>
				</attributes>
			</leg>
			<activity type="shop_daily_2400.0" x="369560.35318170924" y="5691863.401200562" start_time="13:19:00" end_time="13:58:00" >
			</activity>
			<leg mode="car" trav_time="00:13:00">
				<attributes>
					<attribute name="routingMode" class="java.lang.String">car</attribute>
				</attributes>
			</leg>
			<activity type="work_28800.0" x="365295.7710950029" y="5689621.669064363" start_time="14:11:00" >
			</activity>
		</plan>

	</person>

<!-- ====================================================================== -->

	<person id="10390">
		<attributes>
			<attribute name="MiD:hheink_gr2" class="java.lang.String">6</attribute>
			<attribute name="MiD:hhgr_gr" class="java.lang.String">2</attribute>
			<attribute name="microm:modeled:age" class="java.lang.Integer">66</attribute>
			<attribute name="microm:modeled:sex" class="java.lang.String">f</attribute>
			<attribute name="sim_carAvailability" class="java.lang.String">never</attribute>
			<attribute name="sim_ptAbo" class="java.lang.String">none</attribute>
			<attribute name="subpopulation" class="java.lang.String">person</attribute>
		</attributes>
		<plan score="0.0" selected="yes">